@<TRIPOS>MOLECULE
ZINC00300135
   31    32     0     0     0
SMALL
USER_CHARGES

@<TRIPOS>ATOM
      1 C1         -0.0184    1.5028    0.0103 C.3       1 <0>        -0.1323
      2 C2          0.0021   -0.0041    0.0020 C.ar      1 <0>        -0.0412
      3 C3          0.0057   -0.6887   -1.1989 C.ar      1 <0>        -0.1193
      4 C4          0.0245   -2.0709   -1.2065 C.ar      1 <0>        -0.0861
      5 C5          0.0400   -2.7685   -0.0132 C.ar      1 <0>        -0.1783
      6 C6          0.0373   -2.0839    1.1877 C.ar      1 <0>        -0.0861
      7 C7          0.0229   -0.7016    1.1953 C.ar      1 <0>        -0.1195
      8 C8          0.0595   -4.2753   -0.0215 C.3       1 <0>         0.0475
      9 N1          1.4506   -4.7470   -0.0318 N.4       1 <0>        -0.5109
     10 C9          1.4696   -6.2159   -0.0399 C.3       1 <0>         0.0935
     11 C10         2.8967   -6.6998   -0.0504 C.2       1 <0>        -0.1188
     12 C11         3.6460   -6.9634    1.0352 C.2       1 <0>        -0.1359
     13 C12         4.9106   -7.3882    0.5667 C.2       1 <0>        -0.2211
     14 C13         4.8584   -7.3587   -0.7771 C.2       1 <0>         0.0181
     15 O1          3.6343   -6.9465   -1.1453 O.3       1 <0>        -0.1687
     16 H1          1.0042    1.8801    0.0026 H         1 <0>         0.0831
     17 H2         -0.5455    1.8639   -0.8728 H         1 <0>         0.0768
     18 H3         -0.5286    1.8543    0.9071 H         1 <0>         0.0768
     19 H4         -0.0064   -0.1436   -2.1312 H         1 <0>         0.1359
     20 H5          0.0266   -2.6057   -2.1448 H         1 <0>         0.1319
     21 H6          0.0491   -2.6289    2.1200 H         1 <0>         0.1320
     22 H7          0.0245   -0.1667    2.1335 H         1 <0>         0.1359
     23 H8         -0.4447   -4.6501    0.8693 H         1 <0>         0.1399
     24 H9         -0.4546   -4.6404   -0.9106 H         1 <0>         0.1394
     25 H10         1.9173   -4.4001   -0.8563 H         1 <0>         0.4295
     26 H11         0.9654   -6.5907    0.8509 H         1 <0>         0.1575
     27 H12         0.9555   -6.5810   -0.9290 H         1 <0>         0.1469
     28 H13         3.3405   -6.8683    2.0667 H         1 <0>         0.1618
     29 H14         5.7563   -7.6799    1.1718 H         1 <0>         0.1640
     30 H15         5.6630   -7.6252   -1.4464 H         1 <0>         0.2191
     31 H16         1.9265   -4.4091    0.7913 H         1 <0>         0.4284
@<TRIPOS>BOND
     1    1    2 1
     2    1   16 1
     3    1   17 1
     4    1   18 1
     5    2    7 ar
     6    2    3 ar
     7    3    4 ar
     8    3   19 1
     9    4    5 ar
    10    4   20 1
    11    5    6 ar
    12    5    8 1
    13    6    7 ar
    14    6   21 1
    15    7   22 1
    16    8    9 1
    17    8   23 1
    18    8   24 1
    19    9   10 1
    20    9   25 1
    21    9   31 1
    22   10   11 1
    23   10   26 1
    24   10   27 1
    25   11   15 1
    26   11   12 2
    27   12   13 1
    28   12   28 1
    29   13   14 2
    30   13   29 1
    31   14   15 1
    32   14   30 1
